14
Coordinates from ORCA-job example_MEP E -344.378604518079 [Geometry 10]
H      2.6314720000   -0.8270050000   -0.5590940000
C      1.5377080000   -0.9657050000   -0.5675580000
H      1.0938470000   -0.2448510000   -1.2747880000
H      1.2957770000   -1.9875070000   -0.8880540000
C      0.9241990000   -0.7028590000    0.7905930000
O      0.1067810000   -1.3971090000    1.3291470000
O      1.3367200000    0.4489250000    1.4006960000
C     -2.1125280000    0.6506300000   -0.3150910000
H     -2.0808510000   -0.3320220000    0.1936140000
H     -2.8896750000    1.2722310000    0.1720770000
H     -2.4239090000    0.4880510000   -1.3602440000
H      1.9792670000    0.9119790000    0.8419800000
O     -0.8482740000    1.2860110000   -0.3388480000
H     -0.5505350000    1.3992300000    0.5755690000
