14
Coordinates from ORCA-job example_MEP E -344.387777144914
  H       2.085716     -0.996734      0.422314
  C       1.522723     -0.799964     -0.505907
  H       1.682648      0.250832     -0.785484
  H       1.886149     -1.485110     -1.282134
  C       0.061658     -1.062374     -0.252299
  O      -0.537670     -2.077190     -0.489830
  O      -0.540365      0.017930      0.324138
  C      -1.929599     -0.129455      0.637151
  H      -2.074318     -0.924385      1.384329
  H      -2.257608      0.836948      1.039788
  H      -2.506632     -0.386741     -0.263318
  H       1.460277      2.572918      0.326459
  O       0.880461      2.434418     -0.434771
  H       0.266559      1.748906     -0.120437
14
Coordinates from ORCA-job example_MEP E -344.364660617632
  H       2.424452     -0.892267      0.413277
  C       1.724920     -1.004700     -0.424392
  H       1.965738     -0.260830     -1.203636
  H       1.834267     -1.998694     -0.885832
  C       0.241304     -0.864337     -0.145181
  O      -0.553902     -1.392901     -0.862765
  O      -0.228720     -0.089549      0.853944
  C      -1.733127     -0.030442      0.677072
  H      -2.225066     -0.987164      0.933874
  H      -1.980247      0.757805      1.377866
  H      -2.092457      0.219311     -0.345197
  H       0.780864      1.773888      0.197146
  O       0.361215      2.319545     -0.482445
  H      -0.519242      2.450332     -0.103730
14
Coordinates from ORCA-job example_MEP E -344.295626573801
  H       2.468290     -0.926327      0.364494
  C       1.746482     -1.035000     -0.455723
  H       1.968533     -0.279972     -1.229948
  H       1.813946     -2.031393     -0.915568
  C       0.332361     -0.761084      0.001812
  O      -0.632087     -1.187144     -0.664648
  O       0.101317     -0.041365      1.014907
  C      -1.915148     -0.111082      0.535511
  H      -2.339618     -1.048721      0.894246
  H      -1.873299      0.681114      1.278385
  H      -2.288840      0.202140     -0.441319
  H       0.775455      1.767992      0.199671
  O       0.361479      2.321116     -0.480537
  H      -0.518871      2.449725     -0.101283
14
Coordinates from ORCA-job example_MEP E -344.357693249936
  H       2.444223     -0.940830      0.330478
  C       1.707964     -1.043783     -0.477729
  H       1.946344     -0.284352     -1.241157
  H       1.770808     -2.043494     -0.926875
  C       0.387030     -0.666229      0.144933
  O      -0.763029     -0.966884     -0.440180
  O       0.354908     -0.001069      1.160898
  C      -1.892207     -0.257456      0.338607
  H      -2.419031     -1.059259      0.856961
  H      -1.718691      0.536984      1.106275
  H      -2.442199      0.189332     -0.478578
  H       0.786105      1.777959      0.206953
  O       0.357046      2.308789     -0.482318
  H      -0.519272      2.450291     -0.098265
14
Coordinates from ORCA-job example_MEP E -344.367282930831
  H       2.747425     -1.214517      0.003170
  C       1.780092     -1.224053     -0.524570
  H       1.903332     -0.646140     -1.457507
  H       1.517645     -2.252264     -0.812817
  C       0.707809     -0.526915      0.308033
  O      -0.524085     -0.716957     -0.185812
  O       0.986388      0.183164      1.251376
  C      -1.810533     -0.114625      0.148241
  H      -2.304243     -0.716407      0.921166
  H      -1.832872      0.943601      0.445268
  H      -2.353256     -0.166349     -0.806521
  H       0.140317      1.564180      0.581540
  O      -0.235570      2.090623     -0.154480
  H      -0.722450      2.796659      0.282912
14
Coordinates from ORCA-job example_MEP E -344.307252835954
  H       2.822575     -1.229027      0.017861
  C       1.866438     -1.259440     -0.533597
  H       2.005840     -0.658535     -1.449561
  H       1.640019     -2.287918     -0.842827
  C       0.772043     -0.544316      0.277677
  O      -0.479797     -0.729359     -0.139147
  O       1.101929      0.229754      1.151486
  C      -1.946063      0.102884      0.185443
  H      -2.272092     -0.601616      0.936726
  H      -2.248814      1.129527      0.504510
  H      -2.304995     -0.035009     -0.831375
  H       0.150737      1.391742      0.556108
  O      -0.372314      1.863380     -0.141710
  H      -0.735506      2.627932      0.308406
14
Coordinates from ORCA-job example_MEP E -344.275060747716
  H       2.883035     -1.239664      0.012037
  C       1.931851     -1.274861     -0.534228
  H       2.034045     -0.664476     -1.448905
  H       1.673974     -2.295359     -0.844503
  C       0.818722     -0.598375      0.246057
  O      -0.360328     -0.864848     -0.149547
  O       1.114071      0.270506      1.097398
  C      -2.063644      0.312783      0.199495
  H      -2.161344     -0.482216      0.936707
  H      -2.507801      1.257689      0.511643
  H      -2.252460      0.029033     -0.832266
  H       0.166125      1.281487      0.572031
  O      -0.523685      1.702769     -0.070510
  H      -0.752560      2.565532      0.304591
14
Coordinates from ORCA-job example_MEP E -344.307932110979
  H       2.910623     -1.237610      0.012289
  C       1.962291     -1.274284     -0.529491
  H       2.048728     -0.663192     -1.446253
  H       1.686654     -2.291586     -0.840400
  C       0.822223     -0.631936      0.209897
  O      -0.307717     -0.955912     -0.147382
  O       1.077397      0.345217      1.033965
  C      -2.018156      0.499883      0.188142
  H      -2.060482     -0.350411      0.911677
  H      -2.645778      1.310764      0.506469
  H      -2.228155      0.087154     -0.808872
  H       0.262907      1.124509      0.648139
  O      -0.683319      1.557880     -0.023396
  H      -0.827216      2.479524      0.285215
14
Coordinates from ORCA-job example_MEP E -344.373798642370
  H       2.969278     -1.224613     -0.013249
  C       2.026118     -1.285376     -0.565732
  H       2.100827     -0.650426     -1.464804
  H       1.781280     -2.305407     -0.880003
  C       0.862506     -0.727777      0.189240
  O      -0.257342     -1.151291     -0.000021
  O       1.145473      0.327035      0.956116
  C      -2.056523      0.706024      0.159564
  H      -1.964522     -0.104579      0.902060
  H      -2.864995      1.383759      0.441904
  H      -2.259716      0.198974     -0.797535
  H       0.342912      0.923532      0.822841
  O      -0.842812      1.488024      0.024688
  H      -0.982484      2.422121      0.224932
14
Coordinates from ORCA-job example_MEP E -344.378604518079
  H       2.631472     -0.827005     -0.559094
  C       1.537708     -0.965705     -0.567558
  H       1.093847     -0.244851     -1.274788
  H       1.295777     -1.987507     -0.888054
  C       0.924199     -0.702859      0.790593
  O       0.106781     -1.397109      1.329147
  O       1.336720      0.448925      1.400696
  C      -2.112528      0.650630     -0.315091
  H      -2.080851     -0.332022      0.193614
  H      -2.889675      1.272231      0.172077
  H      -2.423909      0.488051     -1.360244
  H       1.979267      0.911979      0.841980
  O      -0.848274      1.286011     -0.338848
  H      -0.550535      1.399230      0.575569
