12
	Energy:     -97.0646597 [Geometry 2]
N      5.4243200000    3.2473200000   -0.9432000000
C      4.0884600000    3.2635600000   -0.6412700000
H      6.0539600000    3.3540000000   -0.1556300000
O      3.6844500000    3.3986300000    0.5085100000
N      3.2419500000    3.1196300000   -1.7041900000
C      3.6298700000    2.9656800000   -3.0054000000
O      2.8354200000    2.8396100000   -3.9297000000
C      5.0864000000    2.9583200000   -3.2504400000
C      5.9121300000    3.0990400000   -2.2110100000
H      2.2534000000    3.1280100000   -1.5103500000
H      5.4241500000    2.8381400000   -4.2706700000
H      6.9915000000    3.1020600000   -2.3236600000
