# Scan dihedral restricted B3LYP/sto-3g calc
! RKS STO-3G B3LYP UseSym Opt

%output
 PrintLevel Normal
end 

% geom
  Scan
    D 4 3 10 11 = -180.0, 180.0, 13
  end
end

* xyz 0 1
C          1.43509       -0.04780       -0.00010
C          0.73780        1.19228       -0.00002
C         -0.66368        1.24151       -0.00001
C         -1.43515        0.04767        0.00006
C         -0.73787       -1.19242       -0.00002
C          0.66362       -1.24165       -0.00002
H          1.31386        2.12801        0.00015
H         -1.16822        2.21645        0.00014
H         -1.31393       -2.12815        0.00006
H          1.16816       -2.21659        0.00006
C         -2.93303        0.04344       -0.00002
C         -3.73731        1.12067        0.00003
H         -3.38578       -0.95970       -0.00014
H         -4.82871        1.01517       -0.00009
H         -3.35133        2.14657       -0.00007
C          2.93296       -0.04343        0.00003
C          3.73745       -1.12051       -0.00004
H          3.38556        0.95978       -0.00003
H          4.82882       -1.01477       -0.00007
H          3.35169       -2.14649        0.00009
*

