%nproc=2
#t B3LYP/6-31G* Opt
 
 /Users/ghutchis/Devel/avogadro/testfiles/ch3oh-nmr.qcout

0  1
C           0.66495        -0.02010        -0.00002
O          -0.74262         0.13036         0.00001
H           0.97441        -0.56413        -0.89543
H           0.97442        -0.56413         0.89550
H           1.12778         0.97016         0.00002
H          -1.12534        -0.76416        -0.00002

