! TightSCF STO-3G RIJCOSX AutoAux

% rocis
    NRoots  5
    MaxCore 2500
    MaxDim  50
    DoRI    true
    SOC     true
    DoHigherMult true
    DoQuad      true
    OrbWin = 0, 0, 0, 2000
end

* xyz 1 2
	C                  0.27867948   -1.36683162    0.00000000
	C                  1.32303041   -0.44173575    0.00000000
	C                  1.04434506    0.92484978    0.00000000
	C                 -0.27867948    1.36683162    0.00000000
	C                 -1.32303041    0.44173575    0.00000000
	C                 -1.04434506   -0.92484978    0.00000000
	H                  2.36595443   -0.79037726    0.00000000
	H                  1.86746094    1.65407997    0.00000000
	H                 -2.36595443    0.79037726    0.00000000
	H                 -1.86746094   -1.65407997    0.00000000
	C                 -0.58659169    2.87589931    0.00000000
	C                  0.36350188    3.80076420    0.00000000
	H                 -1.65647768    3.12394312    0.00000000
	H                  0.14429560    4.87693235    0.00000000
	H                  1.43338788    3.55272039    0.00000000
	C                  0.58659169   -2.87589931    0.00000000
	C                 -0.36350188   -3.80076420    0.00000000
	H                  1.65647768   -3.12394312    0.00000000
	H                 -0.14429560   -4.87693235    0.00000000
	H                 -1.43338788   -3.55272039    0.00000000
*
%pal
 nprocs 4
end
